
  -OEChem-02052518233D

 49 52  0     1  0  0  0  0  0999 V2000
    3.3060    2.7272   20.4277 C   0  0  0  0  0  0  0  0  0  0  0  0
    3.9255    2.0831   21.4593 C   0  0  0  0  0  0  0  0  0  0  0  0
    3.7167    2.5083   19.1418 C   0  0  0  0  0  0  0  0  0  0  0  0
    4.9543    1.2221   21.2108 C   0  0  0  0  0  0  0  0  0  0  0  0
    6.4318   -2.4222   25.6614 C   0  0  0  0  0  0  0  0  0  0  0  0
    5.6936   -1.5779   26.4454 C   0  0  0  0  0  0  0  0  0  0  0  0
    6.3161    0.2040   25.0147 C   0  0  0  0  0  0  0  0  0  0  0  0
    5.1204    1.3957   17.5868 C   0  0  0  0  0  0  0  0  0  0  0  0
    6.6123   -0.2122   18.2634 C   0  0  0  0  0  0  0  0  0  0  0  0
    4.7407    1.6329   18.8823 C   0  0  0  0  0  0  0  0  0  0  0  0
    5.3794    0.9714   19.9163 C   0  0  0  0  0  0  0  0  0  0  0  0
    7.1540   -1.9355   24.5431 C   0  0  0  0  0  0  0  0  0  0  0  0
    6.8874   -0.6644   24.1427 C   0  0  0  0  0  0  0  0  0  0  0  0
    6.3937    0.0772   19.5853 C   0  0  0  0  0  0  0  0  0  0  0  0
    5.7328   -0.2440   26.1640 C   0  0  0  0  0  0  0  0  0  0  0  0
    8.2370   -2.5900   23.7568 C   0  0  0  0  0  0  0  0  0  0  0  0
    7.0784   -0.9769   21.5187 C   0  0  0  0  0  0  0  0  0  0  0  0
   11.3728   -1.4817   22.2431 C   0  0  0  0  0  0  0  0  0  0  0  0
    8.7797   -0.3509   23.0565 C   0  0  0  0  0  0  0  0  0  0  0  0
    7.4218   -0.2167   22.8583 C   0  0  2  0  0  0  0  0  0  0  0  0
   12.2894    0.1884   23.7626 C   0  0  0  0  0  0  0  0  0  0  0  0
    9.9866   -2.1248   22.0256 C   0  0  0  0  0  0  0  0  0  0  0  0
    5.9876    0.4355   17.2883 N   0  0  0  0  0  0  0  0  0  0  0  0
    9.1138   -1.7313   23.0819 N   0  0  0  0  0  0  0  0  0  0  0  0
    7.3832   -0.2696   20.4506 N   0  0  0  0  0  0  0  0  0  0  0  0
   11.4168   -0.2396   22.8040 N   0  0  0  0  0  0  0  0  0  0  0  0
    8.1297   -3.7376   23.3753 O   0  0  0  0  0  0  0  0  0  0  0  0
    7.0203   -2.1811   21.3455 O   0  0  0  0  0  0  0  0  0  0  0  0
   12.4095   -2.0376   21.9548 O   0  0  0  0  0  0  0  0  0  0  0  0
    4.9725    0.8422   27.1693 Cl  0  0  0  0  0  0  0  0  0  0  0  0
    2.4924    3.4090   20.6267 H   0  0  0  0  0  0  0  0  0  0  0  0
    3.6006    2.2554   22.4747 H   0  0  0  0  0  0  0  0  0  0  0  0
    3.2330    3.0268   18.3272 H   0  0  0  0  0  0  0  0  0  0  0  0
    5.4450    0.7281   22.0364 H   0  0  0  0  0  0  0  0  0  0  0  0
    6.4645   -3.4754   25.8983 H   0  0  0  0  0  0  0  0  0  0  0  0
    5.0978   -1.9566   27.2628 H   0  0  0  0  0  0  0  0  0  0  0  0
    6.3231    1.2618   24.7967 H   0  0  0  0  0  0  0  0  0  0  0  0
    4.7065    2.0011   16.7939 H   0  0  0  0  0  0  0  0  0  0  0  0
    7.3149   -0.9916   18.0077 H   0  0  0  0  0  0  0  0  0  0  0  0
    9.3218    0.1438   22.2371 H   0  0  0  0  0  0  0  0  0  0  0  0
    9.0594    0.1130   24.0139 H   0  0  0  0  0  0  0  0  0  0  0  0
    7.1630    0.8426   22.7133 H   0  0  0  0  0  0  0  0  0  0  0  0
   12.0751    1.2381   24.0120 H   0  0  0  0  0  0  0  0  0  0  0  0
   12.1776   -0.4326   24.6636 H   0  0  0  0  0  0  0  0  0  0  0  0
   13.3191    0.1043   23.3848 H   0  0  0  0  0  0  0  0  0  0  0  0
    9.5730   -1.7896   21.0630 H   0  0  0  0  0  0  0  0  0  0  0  0
   10.0865   -3.2202   22.0202 H   0  0  0  0  0  0  0  0  0  0  0  0
    8.3283    0.0082   20.2786 H   0  0  0  0  0  0  0  0  0  0  0  0
   10.7424    0.4242   22.4807 H   0  0  0  0  0  0  0  0  0  0  0  0
  1  2  1  0  0  0  0
  1  3  2  0  0  0  0
  2  4  2  0  0  0  0
  3 10  1  0  0  0  0
  4 11  1  0  0  0  0
  5  6  2  0  0  0  0
  5 12  1  0  0  0  0
  6 15  1  0  0  0  0
  7 13  1  0  0  0  0
  7 15  2  0  0  0  0
  8 10  2  0  0  0  0
  8 23  1  0  0  0  0
  9 14  1  0  0  0  0
  9 23  2  0  0  0  0
 10 11  1  0  0  0  0
 11 14  2  0  0  0  0
 12 13  2  0  0  0  0
 12 16  1  0  0  0  0
 13 20  1  0  0  0  0
 14 25  1  0  0  0  0
 15 30  1  0  0  0  0
 16 24  1  0  0  0  0
 16 27  2  0  0  0  0
 17 20  1  0  0  0  0
 17 25  1  0  0  0  0
 17 28  2  0  0  0  0
 18 22  1  0  0  0  0
 18 26  1  0  0  0  0
 18 29  2  0  0  0  0
 19 20  1  0  0  0  0
 19 24  1  0  0  0  0
 21 26  1  0  0  0  0
 22 24  1  0  0  0  0
  1 31  1  0  0  0  0
  2 32  1  0  0  0  0
  3 33  1  0  0  0  0
  4 34  1  0  0  0  0
  5 35  1  0  0  0  0
  6 36  1  0  0  0  0
  7 37  1  0  0  0  0
  8 38  1  0  0  0  0
  9 39  1  0  0  0  0
 19 40  1  0  0  0  0
 19 41  1  0  0  0  0
 20 42  1  0  0  0  0
 21 43  1  0  0  0  0
 21 44  1  0  0  0  0
 21 45  1  0  0  0  0
 22 46  1  0  0  0  0
 22 47  1  0  0  0  0
 25 48  1  0  0  0  0
 26 49  1  0  0  0  0
M  END
> <compound_name>
MAT-POS-a54ce14d-2

> <provenance>
{"isomeric_smiles": "CNC(=O)CN1C[C@H](c2cc(ccc2C1=O)Cl)C(=O)Nc3cncc4c3cccc4", "inchi": "InChI=1S/C22H19ClN4O3/c1-24-20(28)12-27-11-18(17-8-14(23)6-7-16(17)22(27)30)21(29)26-19-10-25-9-13-4-2-3-5-15(13)19/h2-10,18H,11-12H2,1H3,(H,24,28)(H,26,29)/t18-/m1/s1", "inchi_key": "JTYFNCRZNYLUFK-GOSISDBHSA-N", "fixed_inchi": "InChI=1/C22H19ClN4O3/c1-24-20(28)12-27-11-18(17-8-14(23)6-7-16(17)22(27)30)21(29)26-19-10-25-9-13-4-2-3-5-15(13)19/h2-10,18H,11-12H2,1H3,(H,24,28)(H,26,29)/t18-/m1/s1/f/h24,26H", "fixed_inchikey": "JTYFNCRZNYLUFK-RPBBETCJNA-N"}

> <data_format>
sdf

> <Pose_ID>
20

> <_POSIT_method>
SHAPEFIT

> <docking-confidence-POSIT>
0.41999998688697815

$$$$
