
  -OEChem-02052518233D

 49 52  0     1  0  0  0  0  0999 V2000
    3.4621    2.2415   21.0192 C   0  0  0  0  0  0  0  0  0  0  0  0
    4.1753    1.7236   22.0682 C   0  0  0  0  0  0  0  0  0  0  0  0
    3.8955    2.0520   19.7377 C   0  0  0  0  0  0  0  0  0  0  0  0
    5.3063    0.9781   21.8461 C   0  0  0  0  0  0  0  0  0  0  0  0
   12.6321    1.1029   23.5655 C   0  0  0  0  0  0  0  0  0  0  0  0
   13.4983    0.3821   22.7832 C   0  0  0  0  0  0  0  0  0  0  0  0
   11.7448   -1.1029   22.2021 C   0  0  0  0  0  0  0  0  0  0  0  0
    5.4374    1.0951   18.2138 C   0  0  0  0  0  0  0  0  0  0  0  0
    7.2188   -0.1560   18.9413 C   0  0  0  0  0  0  0  0  0  0  0  0
    5.0179    1.3018   19.5020 C   0  0  0  0  0  0  0  0  0  0  0  0
    5.7293    0.7503   20.5538 C   0  0  0  0  0  0  0  0  0  0  0  0
   11.3036    0.7539   23.6492 C   0  0  0  0  0  0  0  0  0  0  0  0
   10.8617   -0.3495   22.9380 C   0  0  0  0  0  0  0  0  0  0  0  0
    6.8615    0.0169   20.2644 C   0  0  0  0  0  0  0  0  0  0  0  0
   13.0631   -0.7316   22.1144 C   0  0  0  0  0  0  0  0  0  0  0  0
   10.3511    1.5532   24.3861 C   0  0  0  0  0  0  0  0  0  0  0  0
    8.8325   -0.0690   21.5901 C   0  0  0  0  0  0  0  0  0  0  0  0
    8.1271    3.5486   24.0490 C   0  0  0  0  0  0  0  0  0  0  0  0
    8.7416   -0.1368   24.0221 C   0  0  0  0  0  0  0  0  0  0  0  0
    9.4311   -0.6177   22.8222 C   0  0  2  0  0  0  0  0  0  0  0  0
    6.2259    4.7178   23.0746 C   0  0  0  0  0  0  0  0  0  0  0  0
    8.0217    2.1352   23.8070 C   0  0  0  0  0  0  0  0  0  0  0  0
    6.5267    0.3871   17.9460 N   0  0  0  0  0  0  0  0  0  0  0  0
    9.0203    1.2251   24.3355 N   0  0  0  0  0  0  0  0  0  0  0  0
    7.6138   -0.5453   21.2557 N   0  0  0  0  0  0  0  0  0  0  0  0
    7.5766    4.2706   23.0280 N   0  0  0  0  0  0  0  0  0  0  0  0
   10.7299    2.4586   25.0876 O   0  0  0  0  0  0  0  0  0  0  0  0
    9.3264    0.8779   21.0148 O   0  0  0  0  0  0  0  0  0  0  0  0
    8.1105    3.9161   25.2036 O   0  0  0  0  0  0  0  0  0  0  0  0
   14.1363   -1.6052   21.1588 Cl  0  0  0  0  0  0  0  0  0  0  0  0
    2.5567    2.8000   21.2056 H   0  0  0  0  0  0  0  0  0  0  0  0
    3.8442    1.9038   23.0803 H   0  0  0  0  0  0  0  0  0  0  0  0
    3.3552    2.4921   18.9126 H   0  0  0  0  0  0  0  0  0  0  0  0
    5.8615    0.5724   22.6789 H   0  0  0  0  0  0  0  0  0  0  0  0
   12.9968    1.9537   24.1219 H   0  0  0  0  0  0  0  0  0  0  0  0
   14.5283    0.6942   22.6940 H   0  0  0  0  0  0  0  0  0  0  0  0
   11.4003   -1.9899   21.6914 H   0  0  0  0  0  0  0  0  0  0  0  0
    4.8687    1.5180   17.3989 H   0  0  0  0  0  0  0  0  0  0  0  0
    8.0889   -0.7520   18.7085 H   0  0  0  0  0  0  0  0  0  0  0  0
    7.6579   -0.2425   23.8659 H   0  0  0  0  0  0  0  0  0  0  0  0
    9.0518   -0.7597   24.8741 H   0  0  0  0  0  0  0  0  0  0  0  0
    9.3035   -1.7097   22.7870 H   0  0  0  0  0  0  0  0  0  0  0  0
    5.9921    5.2761   22.1560 H   0  0  0  0  0  0  0  0  0  0  0  0
    5.5550    3.8500   23.1568 H   0  0  0  0  0  0  0  0  0  0  0  0
    6.0865    5.3729   23.9472 H   0  0  0  0  0  0  0  0  0  0  0  0
    7.0532    1.8154   24.2189 H   0  0  0  0  0  0  0  0  0  0  0  0
    8.0182    2.0010   22.7152 H   0  0  0  0  0  0  0  0  0  0  0  0
    7.2507   -1.3350   21.7500 H   0  0  0  0  0  0  0  0  0  0  0  0
    8.1360    4.4902   22.2287 H   0  0  0  0  0  0  0  0  0  0  0  0
  1  2  1  0  0  0  0
  1  3  2  0  0  0  0
  2  4  2  0  0  0  0
  3 10  1  0  0  0  0
  4 11  1  0  0  0  0
  5  6  2  0  0  0  0
  5 12  1  0  0  0  0
  6 15  1  0  0  0  0
  7 13  1  0  0  0  0
  7 15  2  0  0  0  0
  8 10  2  0  0  0  0
  8 23  1  0  0  0  0
  9 14  1  0  0  0  0
  9 23  2  0  0  0  0
 10 11  1  0  0  0  0
 11 14  2  0  0  0  0
 12 13  2  0  0  0  0
 12 16  1  0  0  0  0
 13 20  1  0  0  0  0
 14 25  1  0  0  0  0
 15 30  1  0  0  0  0
 16 24  1  0  0  0  0
 16 27  2  0  0  0  0
 17 20  1  0  0  0  0
 17 25  1  0  0  0  0
 17 28  2  0  0  0  0
 18 22  1  0  0  0  0
 18 26  1  0  0  0  0
 18 29  2  0  0  0  0
 19 20  1  0  0  0  0
 19 24  1  0  0  0  0
 21 26  1  0  0  0  0
 22 24  1  0  0  0  0
  1 31  1  0  0  0  0
  2 32  1  0  0  0  0
  3 33  1  0  0  0  0
  4 34  1  0  0  0  0
  5 35  1  0  0  0  0
  6 36  1  0  0  0  0
  7 37  1  0  0  0  0
  8 38  1  0  0  0  0
  9 39  1  0  0  0  0
 19 40  1  0  0  0  0
 19 41  1  0  0  0  0
 20 42  1  0  0  0  0
 21 43  1  0  0  0  0
 21 44  1  0  0  0  0
 21 45  1  0  0  0  0
 22 46  1  0  0  0  0
 22 47  1  0  0  0  0
 25 48  1  0  0  0  0
 26 49  1  0  0  0  0
M  END
> <compound_name>
MAT-POS-a54ce14d-2

> <provenance>
{"isomeric_smiles": "CNC(=O)CN1C[C@H](c2cc(ccc2C1=O)Cl)C(=O)Nc3cncc4c3cccc4", "inchi": "InChI=1S/C22H19ClN4O3/c1-24-20(28)12-27-11-18(17-8-14(23)6-7-16(17)22(27)30)21(29)26-19-10-25-9-13-4-2-3-5-15(13)19/h2-10,18H,11-12H2,1H3,(H,24,28)(H,26,29)/t18-/m1/s1", "inchi_key": "JTYFNCRZNYLUFK-GOSISDBHSA-N", "fixed_inchi": "InChI=1/C22H19ClN4O3/c1-24-20(28)12-27-11-18(17-8-14(23)6-7-16(17)22(27)30)21(29)26-19-10-25-9-13-4-2-3-5-15(13)19/h2-10,18H,11-12H2,1H3,(H,24,28)(H,26,29)/t18-/m1/s1/f/h24,26H", "fixed_inchikey": "JTYFNCRZNYLUFK-RPBBETCJNA-N"}

> <data_format>
sdf

> <docking-confidence-POSIT>
0.8300000000000001

> <Pose_ID>
0

> <_POSIT_method>
SHAPEFIT

$$$$
