
  -OEChem-02052518233D

 49 52  0     1  0  0  0  0  0999 V2000
    5.3475    1.3611   17.5170 C   0  0  0  0  0  0  0  0  0  0  0  0
    6.5056    0.6306   17.6648 C   0  0  0  0  0  0  0  0  0  0  0  0
    4.5857    1.7200   18.6120 C   0  0  0  0  0  0  0  0  0  0  0  0
    6.9135    0.2148   18.8867 C   0  0  0  0  0  0  0  0  0  0  0  0
   12.6101    1.2407   23.7924 C   0  0  0  0  0  0  0  0  0  0  0  0
   13.5288    0.5457   23.0518 C   0  0  0  0  0  0  0  0  0  0  0  0
   11.8327   -0.9573   22.3473 C   0  0  0  0  0  0  0  0  0  0  0  0
    4.1805    1.6094   20.9059 C   0  0  0  0  0  0  0  0  0  0  0  0
    5.6762    0.5157   22.2590 C   0  0  0  0  0  0  0  0  0  0  0  0
    4.9777    1.3010   19.8319 C   0  0  0  0  0  0  0  0  0  0  0  0
    6.1503    0.5615   19.9741 C   0  0  0  0  0  0  0  0  0  0  0  0
   11.2859    0.8790   23.7882 C   0  0  0  0  0  0  0  0  0  0  0  0
   10.8955   -0.2209   23.0301 C   0  0  0  0  0  0  0  0  0  0  0  0
    6.5193    0.1635   21.2123 C   0  0  0  0  0  0  0  0  0  0  0  0
   13.1518   -0.5704   22.3476 C   0  0  0  0  0  0  0  0  0  0  0  0
   10.2842    1.6936   24.4399 C   0  0  0  0  0  0  0  0  0  0  0  0
    8.8684   -0.1362   21.5806 C   0  0  0  0  0  0  0  0  0  0  0  0
    6.9345    2.8793   24.0667 C   0  0  0  0  0  0  0  0  0  0  0  0
    8.7251    0.0472   23.9742 C   0  0  0  0  0  0  0  0  0  0  0  0
    9.4747   -0.5492   22.8636 C   0  0  2  0  0  0  0  0  0  0  0  0
    6.2196    4.7495   22.7064 C   0  0  0  0  0  0  0  0  0  0  0  0
    8.1915    2.5344   23.4201 C   0  0  0  0  0  0  0  0  0  0  0  0
    4.5330    1.2022   22.1041 N   0  0  0  0  0  0  0  0  0  0  0  0
    8.9869    1.4611   24.1211 N   0  0  0  0  0  0  0  0  0  0  0  0
    7.6292   -0.6411   21.4145 N   0  0  0  0  0  0  0  0  0  0  0  0
    5.9736    3.5233   23.3073 N   0  0  0  0  0  0  0  0  0  0  0  0
   10.5779    2.7085   25.0201 O   0  0  0  0  0  0  0  0  0  0  0  0
    9.3023    0.7896   20.9326 O   0  0  0  0  0  0  0  0  0  0  0  0
    6.5962    2.2062   25.0181 O   0  0  0  0  0  0  0  0  0  0  0  0
   14.2971   -1.4276   21.4573 Cl  0  0  0  0  0  0  0  0  0  0  0  0
    5.0297    1.6585   16.5286 H   0  0  0  0  0  0  0  0  0  0  0  0
    7.0961    0.3861   16.7942 H   0  0  0  0  0  0  0  0  0  0  0  0
    3.6969    2.3220   18.4935 H   0  0  0  0  0  0  0  0  0  0  0  0
    7.8125   -0.3722   19.0029 H   0  0  0  0  0  0  0  0  0  0  0  0
   12.9313    2.0833   24.3867 H   0  0  0  0  0  0  0  0  0  0  0  0
   14.5560    0.8779   23.0216 H   0  0  0  0  0  0  0  0  0  0  0  0
   11.5321   -1.8435   21.8082 H   0  0  0  0  0  0  0  0  0  0  0  0
    3.2741    2.1802   20.7676 H   0  0  0  0  0  0  0  0  0  0  0  0
    5.9578    0.2190   23.2585 H   0  0  0  0  0  0  0  0  0  0  0  0
    7.6498   -0.0956   23.7912 H   0  0  0  0  0  0  0  0  0  0  0  0
    9.0093   -0.4632   24.9062 H   0  0  0  0  0  0  0  0  0  0  0  0
    9.3735   -1.6418   22.9412 H   0  0  0  0  0  0  0  0  0  0  0  0
    5.3245    5.0748   22.1560 H   0  0  0  0  0  0  0  0  0  0  0  0
    6.4656    5.4933   23.4785 H   0  0  0  0  0  0  0  0  0  0  0  0
    7.0641    4.6526   22.0082 H   0  0  0  0  0  0  0  0  0  0  0  0
    7.9682    2.1852   22.4012 H   0  0  0  0  0  0  0  0  0  0  0  0
    8.8110    3.4419   23.3692 H   0  0  0  0  0  0  0  0  0  0  0  0
    7.5066   -1.6332   21.4381 H   0  0  0  0  0  0  0  0  0  0  0  0
    5.0784    3.0937   23.1886 H   0  0  0  0  0  0  0  0  0  0  0  0
  1  2  1  0  0  0  0
  1  3  2  0  0  0  0
  2  4  2  0  0  0  0
  3 10  1  0  0  0  0
  4 11  1  0  0  0  0
  5  6  2  0  0  0  0
  5 12  1  0  0  0  0
  6 15  1  0  0  0  0
  7 13  1  0  0  0  0
  7 15  2  0  0  0  0
  8 10  2  0  0  0  0
  8 23  1  0  0  0  0
  9 14  1  0  0  0  0
  9 23  2  0  0  0  0
 10 11  1  0  0  0  0
 11 14  2  0  0  0  0
 12 13  2  0  0  0  0
 12 16  1  0  0  0  0
 13 20  1  0  0  0  0
 14 25  1  0  0  0  0
 15 30  1  0  0  0  0
 16 24  1  0  0  0  0
 16 27  2  0  0  0  0
 17 20  1  0  0  0  0
 17 25  1  0  0  0  0
 17 28  2  0  0  0  0
 18 22  1  0  0  0  0
 18 26  1  0  0  0  0
 18 29  2  0  0  0  0
 19 20  1  0  0  0  0
 19 24  1  0  0  0  0
 21 26  1  0  0  0  0
 22 24  1  0  0  0  0
  1 31  1  0  0  0  0
  2 32  1  0  0  0  0
  3 33  1  0  0  0  0
  4 34  1  0  0  0  0
  5 35  1  0  0  0  0
  6 36  1  0  0  0  0
  7 37  1  0  0  0  0
  8 38  1  0  0  0  0
  9 39  1  0  0  0  0
 19 40  1  0  0  0  0
 19 41  1  0  0  0  0
 20 42  1  0  0  0  0
 21 43  1  0  0  0  0
 21 44  1  0  0  0  0
 21 45  1  0  0  0  0
 22 46  1  0  0  0  0
 22 47  1  0  0  0  0
 25 48  1  0  0  0  0
 26 49  1  0  0  0  0
M  END
> <compound_name>
MAT-POS-a54ce14d-2

> <provenance>
{"isomeric_smiles": "CNC(=O)CN1C[C@H](c2cc(ccc2C1=O)Cl)C(=O)Nc3cncc4c3cccc4", "inchi": "InChI=1S/C22H19ClN4O3/c1-24-20(28)12-27-11-18(17-8-14(23)6-7-16(17)22(27)30)21(29)26-19-10-25-9-13-4-2-3-5-15(13)19/h2-10,18H,11-12H2,1H3,(H,24,28)(H,26,29)/t18-/m1/s1", "inchi_key": "JTYFNCRZNYLUFK-GOSISDBHSA-N", "fixed_inchi": "InChI=1/C22H19ClN4O3/c1-24-20(28)12-27-11-18(17-8-14(23)6-7-16(17)22(27)30)21(29)26-19-10-25-9-13-4-2-3-5-15(13)19/h2-10,18H,11-12H2,1H3,(H,24,28)(H,26,29)/t18-/m1/s1/f/h24,26H", "fixed_inchikey": "JTYFNCRZNYLUFK-RPBBETCJNA-N"}

> <data_format>
sdf

> <_POSIT_method>
SHAPEFIT

> <Pose_ID>
5

> <docking-confidence-POSIT>
0.5

$$$$
