
  -OEChem-02052518233D

 49 52  0     1  0  0  0  0  0999 V2000
    3.0738    2.6147   20.2738 C   0  0  0  0  0  0  0  0  0  0  0  0
    3.4563    1.7680   21.2478 C   0  0  0  0  0  0  0  0  0  0  0  0
    3.6670    2.4796   19.0590 C   0  0  0  0  0  0  0  0  0  0  0  0
    4.6106    1.0256   21.1406 C   0  0  0  0  0  0  0  0  0  0  0  0
   11.5319    1.0578   23.7460 C   0  0  0  0  0  0  0  0  0  0  0  0
   12.6648    0.6038   23.1214 C   0  0  0  0  0  0  0  0  0  0  0  0
   11.3646   -1.0375   21.9755 C   0  0  0  0  0  0  0  0  0  0  0  0
    5.1656    1.3108   17.6753 C   0  0  0  0  0  0  0  0  0  0  0  0
    6.7742   -0.1025   18.5510 C   0  0  0  0  0  0  0  0  0  0  0  0
    4.7036    1.5845   18.9060 C   0  0  0  0  0  0  0  0  0  0  0  0
    5.2544    0.9241   19.9789 C   0  0  0  0  0  0  0  0  0  0  0  0
   10.3343    0.4021   23.5245 C   0  0  0  0  0  0  0  0  0  0  0  0
   10.2475   -0.6215   22.6171 C   0  0  0  0  0  0  0  0  0  0  0  0
    6.3476    0.0951   19.8318 C   0  0  0  0  0  0  0  0  0  0  0  0
   12.5853   -0.4715   22.2584 C   0  0  0  0  0  0  0  0  0  0  0  0
    9.1406    0.6808   24.2419 C   0  0  0  0  0  0  0  0  0  0  0  0
    8.1402   -0.2374   21.4153 C   0  0  0  0  0  0  0  0  0  0  0  0
    6.2115    1.5067   23.7597 C   0  0  0  0  0  0  0  0  0  0  0  0
    8.3470   -1.5229   23.6238 C   0  0  0  0  0  0  0  0  0  0  0  0
    8.9224   -1.2195   22.3362 C   0  0  2  0  0  0  0  0  0  0  0  0
    4.2824    3.0921   23.5791 C   0  0  0  0  0  0  0  0  0  0  0  0
    6.6845    0.0530   24.0309 C   0  0  0  0  0  0  0  0  0  0  0  0
    6.1786    0.4640   17.5015 N   0  0  0  0  0  0  0  0  0  0  0  0
    8.0862   -0.2587   24.1695 N   0  0  0  0  0  0  0  0  0  0  0  0
    6.9639   -0.6165   20.8580 N   0  0  0  0  0  0  0  0  0  0  0  0
    4.8375    1.7729   23.7917 N   0  0  0  0  0  0  0  0  0  0  0  0
    9.0769    1.7228   24.8595 O   0  0  0  0  0  0  0  0  0  0  0  0
    8.5456    0.8883   21.1956 O   0  0  0  0  0  0  0  0  0  0  0  0
    6.9056    2.2375   23.0709 O   0  0  0  0  0  0  0  0  0  0  0  0
   13.9655   -1.0910   21.5199 Cl  0  0  0  0  0  0  0  0  0  0  0  0
    2.3244    3.3719   20.4511 H   0  0  0  0  0  0  0  0  0  0  0  0
    2.8445    1.6691   22.1323 H   0  0  0  0  0  0  0  0  0  0  0  0
    3.3289    3.0692   18.2197 H   0  0  0  0  0  0  0  0  0  0  0  0
    4.9998    0.5181   22.0109 H   0  0  0  0  0  0  0  0  0  0  0  0
   11.5740    1.9151   24.4015 H   0  0  0  0  0  0  0  0  0  0  0  0
   13.6146    1.0846   23.3034 H   0  0  0  0  0  0  0  0  0  0  0  0
   11.2963   -1.8207   21.2350 H   0  0  0  0  0  0  0  0  0  0  0  0
    4.7107    1.7827   16.8169 H   0  0  0  0  0  0  0  0  0  0  0  0
    7.6273   -0.7425   18.3809 H   0  0  0  0  0  0  0  0  0  0  0  0
    7.4190   -2.1030   23.5134 H   0  0  0  0  0  0  0  0  0  0  0  0
    9.0571   -2.0829   24.2500 H   0  0  0  0  0  0  0  0  0  0  0  0
    9.0704   -2.1554   21.7775 H   0  0  0  0  0  0  0  0  0  0  0  0
    3.1859    3.0453   23.6529 H   0  0  0  0  0  0  0  0  0  0  0  0
    4.6721    3.7811   24.3429 H   0  0  0  0  0  0  0  0  0  0  0  0
    4.5675    3.4531   22.5799 H   0  0  0  0  0  0  0  0  0  0  0  0
    6.1997   -0.2643   24.9660 H   0  0  0  0  0  0  0  0  0  0  0  0
    6.3091   -0.5587   23.1973 H   0  0  0  0  0  0  0  0  0  0  0  0
    6.5187   -1.4444   21.1991 H   0  0  0  0  0  0  0  0  0  0  0  0
    4.2097    1.0152   23.9699 H   0  0  0  0  0  0  0  0  0  0  0  0
  1  2  1  0  0  0  0
  1  3  2  0  0  0  0
  2  4  2  0  0  0  0
  3 10  1  0  0  0  0
  4 11  1  0  0  0  0
  5  6  2  0  0  0  0
  5 12  1  0  0  0  0
  6 15  1  0  0  0  0
  7 13  1  0  0  0  0
  7 15  2  0  0  0  0
  8 10  2  0  0  0  0
  8 23  1  0  0  0  0
  9 14  1  0  0  0  0
  9 23  2  0  0  0  0
 10 11  1  0  0  0  0
 11 14  2  0  0  0  0
 12 13  2  0  0  0  0
 12 16  1  0  0  0  0
 13 20  1  0  0  0  0
 14 25  1  0  0  0  0
 15 30  1  0  0  0  0
 16 24  1  0  0  0  0
 16 27  2  0  0  0  0
 17 20  1  0  0  0  0
 17 25  1  0  0  0  0
 17 28  2  0  0  0  0
 18 22  1  0  0  0  0
 18 26  1  0  0  0  0
 18 29  2  0  0  0  0
 19 20  1  0  0  0  0
 19 24  1  0  0  0  0
 21 26  1  0  0  0  0
 22 24  1  0  0  0  0
  1 31  1  0  0  0  0
  2 32  1  0  0  0  0
  3 33  1  0  0  0  0
  4 34  1  0  0  0  0
  5 35  1  0  0  0  0
  6 36  1  0  0  0  0
  7 37  1  0  0  0  0
  8 38  1  0  0  0  0
  9 39  1  0  0  0  0
 19 40  1  0  0  0  0
 19 41  1  0  0  0  0
 20 42  1  0  0  0  0
 21 43  1  0  0  0  0
 21 44  1  0  0  0  0
 21 45  1  0  0  0  0
 22 46  1  0  0  0  0
 22 47  1  0  0  0  0
 25 48  1  0  0  0  0
 26 49  1  0  0  0  0
M  END
> <compound_name>
MAT-POS-a54ce14d-2

> <provenance>
{"isomeric_smiles": "CNC(=O)CN1C[C@H](c2cc(ccc2C1=O)Cl)C(=O)Nc3cncc4c3cccc4", "inchi": "InChI=1S/C22H19ClN4O3/c1-24-20(28)12-27-11-18(17-8-14(23)6-7-16(17)22(27)30)21(29)26-19-10-25-9-13-4-2-3-5-15(13)19/h2-10,18H,11-12H2,1H3,(H,24,28)(H,26,29)/t18-/m1/s1", "inchi_key": "JTYFNCRZNYLUFK-GOSISDBHSA-N", "fixed_inchi": "InChI=1/C22H19ClN4O3/c1-24-20(28)12-27-11-18(17-8-14(23)6-7-16(17)22(27)30)21(29)26-19-10-25-9-13-4-2-3-5-15(13)19/h2-10,18H,11-12H2,1H3,(H,24,28)(H,26,29)/t18-/m1/s1/f/h24,26H", "fixed_inchikey": "JTYFNCRZNYLUFK-RPBBETCJNA-N"}

> <data_format>
sdf

> <docking-confidence-POSIT>
0.5

> <Pose_ID>
19

> <_POSIT_method>
SHAPEFIT

$$$$
