
  -OEChem-02052518233D

 49 52  0     1  0  0  0  0  0999 V2000
    3.3731    2.1633   20.9737 C   0  0  0  0  0  0  0  0  0  0  0  0
    4.0591    1.6163   22.0214 C   0  0  0  0  0  0  0  0  0  0  0  0
    3.8536    2.0281   19.7035 C   0  0  0  0  0  0  0  0  0  0  0  0
    5.2068    0.8963   21.8056 C   0  0  0  0  0  0  0  0  0  0  0  0
   12.4780    1.2889   23.7818 C   0  0  0  0  0  0  0  0  0  0  0  0
   13.3856    0.5760   23.0464 C   0  0  0  0  0  0  0  0  0  0  0  0
   11.6773   -0.9461   22.4152 C   0  0  0  0  0  0  0  0  0  0  0  0
    5.4358    1.1306   18.1893 C   0  0  0  0  0  0  0  0  0  0  0  0
    7.2179   -0.1143   18.9255 C   0  0  0  0  0  0  0  0  0  0  0  0
    4.9949    1.3082   19.4726 C   0  0  0  0  0  0  0  0  0  0  0  0
    5.6836    0.7301   20.5232 C   0  0  0  0  0  0  0  0  0  0  0  0
   11.1479    0.9347   23.7916 C   0  0  0  0  0  0  0  0  0  0  0  0
   10.7443   -0.2047   23.1065 C   0  0  0  0  0  0  0  0  0  0  0  0
    6.8344    0.0197   20.2450 C   0  0  0  0  0  0  0  0  0  0  0  0
   12.9922   -0.5473   22.3665 C   0  0  0  0  0  0  0  0  0  0  0  0
   10.1479    1.8468   24.2789 C   0  0  0  0  0  0  0  0  0  0  0  0
    8.8276   -0.1858   21.5471 C   0  0  0  0  0  0  0  0  0  0  0  0
    6.8957    3.3601   23.2716 C   0  0  0  0  0  0  0  0  0  0  0  0
    8.5019    0.2901   23.8559 C   0  0  0  0  0  0  0  0  0  0  0  0
    9.3015   -0.4917   22.9177 C   0  0  2  0  0  0  0  0  0  0  0  0
    7.4940    3.2402   25.4953 C   0  0  0  0  0  0  0  0  0  0  0  0
    8.1819    2.7486   22.8370 C   0  0  0  0  0  0  0  0  0  0  0  0
    6.5233    0.4210   17.9293 N   0  0  0  0  0  0  0  0  0  0  0  0
    8.8801    1.6828   23.7614 N   0  0  0  0  0  0  0  0  0  0  0  0
    7.5610   -0.5651   21.2469 N   0  0  0  0  0  0  0  0  0  0  0  0
    6.5748    2.8713   24.4698 N   0  0  0  0  0  0  0  0  0  0  0  0
   10.4836    2.8658   24.8306 O   0  0  0  0  0  0  0  0  0  0  0  0
    9.4201    0.6235   20.8640 O   0  0  0  0  0  0  0  0  0  0  0  0
    6.4789    4.4419   22.8676 O   0  0  0  0  0  0  0  0  0  0  0  0
   14.1032   -1.3829   21.4152 Cl  0  0  0  0  0  0  0  0  0  0  0  0
    2.4533    2.7011   21.1503 H   0  0  0  0  0  0  0  0  0  0  0  0
    3.6943    1.7520   23.0288 H   0  0  0  0  0  0  0  0  0  0  0  0
    3.3321    2.4903   18.8784 H   0  0  0  0  0  0  0  0  0  0  0  0
    5.7362    0.4603   22.6398 H   0  0  0  0  0  0  0  0  0  0  0  0
   12.8088    2.1385   24.3606 H   0  0  0  0  0  0  0  0  0  0  0  0
   14.4151    0.8995   23.0016 H   0  0  0  0  0  0  0  0  0  0  0  0
   11.3730   -1.8490   21.9068 H   0  0  0  0  0  0  0  0  0  0  0  0
    4.8868    1.5773   17.3736 H   0  0  0  0  0  0  0  0  0  0  0  0
    8.1131   -0.6733   18.6964 H   0  0  0  0  0  0  0  0  0  0  0  0
    7.4354    0.1815   23.6092 H   0  0  0  0  0  0  0  0  0  0  0  0
    8.6799   -0.0703   24.8798 H   0  0  0  0  0  0  0  0  0  0  0  0
    9.1312   -1.5606   23.1140 H   0  0  0  0  0  0  0  0  0  0  0  0
    7.1703    2.8053   26.4524 H   0  0  0  0  0  0  0  0  0  0  0  0
    8.4962    2.8640   25.2420 H   0  0  0  0  0  0  0  0  0  0  0  0
    7.5252    4.3363   25.5827 H   0  0  0  0  0  0  0  0  0  0  0  0
    7.9942    2.2602   21.8694 H   0  0  0  0  0  0  0  0  0  0  0  0
    8.8982    3.5720   22.6992 H   0  0  0  0  0  0  0  0  0  0  0  0
    7.1412   -1.3009   21.7782 H   0  0  0  0  0  0  0  0  0  0  0  0
    5.7690    2.3021   24.6330 H   0  0  0  0  0  0  0  0  0  0  0  0
  1  2  1  0  0  0  0
  1  3  2  0  0  0  0
  2  4  2  0  0  0  0
  3 10  1  0  0  0  0
  4 11  1  0  0  0  0
  5  6  2  0  0  0  0
  5 12  1  0  0  0  0
  6 15  1  0  0  0  0
  7 13  1  0  0  0  0
  7 15  2  0  0  0  0
  8 10  2  0  0  0  0
  8 23  1  0  0  0  0
  9 14  1  0  0  0  0
  9 23  2  0  0  0  0
 10 11  1  0  0  0  0
 11 14  2  0  0  0  0
 12 13  2  0  0  0  0
 12 16  1  0  0  0  0
 13 20  1  0  0  0  0
 14 25  1  0  0  0  0
 15 30  1  0  0  0  0
 16 24  1  0  0  0  0
 16 27  2  0  0  0  0
 17 20  1  0  0  0  0
 17 25  1  0  0  0  0
 17 28  2  0  0  0  0
 18 22  1  0  0  0  0
 18 26  1  0  0  0  0
 18 29  2  0  0  0  0
 19 20  1  0  0  0  0
 19 24  1  0  0  0  0
 21 26  1  0  0  0  0
 22 24  1  0  0  0  0
  1 31  1  0  0  0  0
  2 32  1  0  0  0  0
  3 33  1  0  0  0  0
  4 34  1  0  0  0  0
  5 35  1  0  0  0  0
  6 36  1  0  0  0  0
  7 37  1  0  0  0  0
  8 38  1  0  0  0  0
  9 39  1  0  0  0  0
 19 40  1  0  0  0  0
 19 41  1  0  0  0  0
 20 42  1  0  0  0  0
 21 43  1  0  0  0  0
 21 44  1  0  0  0  0
 21 45  1  0  0  0  0
 22 46  1  0  0  0  0
 22 47  1  0  0  0  0
 25 48  1  0  0  0  0
 26 49  1  0  0  0  0
M  END
> <compound_name>
MAT-POS-a54ce14d-2

> <provenance>
{"isomeric_smiles": "CNC(=O)CN1C[C@H](c2cc(ccc2C1=O)Cl)C(=O)Nc3cncc4c3cccc4", "inchi": "InChI=1S/C22H19ClN4O3/c1-24-20(28)12-27-11-18(17-8-14(23)6-7-16(17)22(27)30)21(29)26-19-10-25-9-13-4-2-3-5-15(13)19/h2-10,18H,11-12H2,1H3,(H,24,28)(H,26,29)/t18-/m1/s1", "inchi_key": "JTYFNCRZNYLUFK-GOSISDBHSA-N", "fixed_inchi": "InChI=1/C22H19ClN4O3/c1-24-20(28)12-27-11-18(17-8-14(23)6-7-16(17)22(27)30)21(29)26-19-10-25-9-13-4-2-3-5-15(13)19/h2-10,18H,11-12H2,1H3,(H,24,28)(H,26,29)/t18-/m1/s1/f/h24,26H", "fixed_inchikey": "JTYFNCRZNYLUFK-RPBBETCJNA-N"}

> <data_format>
sdf

> <Pose_ID>
3

> <docking-confidence-POSIT>
0.72

> <_POSIT_method>
SHAPEFIT

$$$$
